Circuit: * C:\Users\lugfe\Documents\GitHub\potencia\TP1\simulaciones\ej1.asc

Direct Newton iteration for .op point succeeded.

Date: Fri Mar 27 18:35:43 2020
Total elapsed time: 4.267 seconds.

tnom = 27
temp = 27
method = modified trap
totiter = 258244
traniter = 258225
tranpoints = 101014
accept = 100723
rejected = 291
matrix size = 20
fillins = 11
solver = Normal
Matrix Compiler1: 1.92 KB object code size  0.5/0.4/[0.2]
Matrix Compiler2: 1.80 KB object code size  0.2/0.4/[0.2]

