Circuit: * C:\Users\lugfe\Documents\GitHub\potencia\TP1\simulaciones\ej1.asc

Direct Newton iteration for .op point succeeded.

Date: Sat Mar 21 23:25:24 2020
Total elapsed time: 5.191 seconds.

tnom = 27
temp = 27
method = modified trap
totiter = 250365
traniter = 250346
tranpoints = 100959
accept = 100645
rejected = 314
matrix size = 20
fillins = 11
solver = Normal
Matrix Compiler1: 1.92 KB object code size  0.3/0.2/[0.1]
Matrix Compiler2: off  [0.2]/0.2/0.2

