Circuit: * C:\Users\lugfe\Documents\GitHub\potencia\TP1\simulaciones\ej1.asc

Direct Newton iteration for .op point succeeded.

Date: Mon Mar 30 16:45:34 2020
Total elapsed time: 4.430 seconds.

tnom = 27
temp = 27
method = modified trap
totiter = 258443
traniter = 258424
tranpoints = 101034
accept = 100732
rejected = 302
matrix size = 20
fillins = 11
solver = Normal
Matrix Compiler1: 1.92 KB object code size  0.4/0.2/[0.2]
Matrix Compiler2: off  [0.2]/0.3/0.2

